<?xml version="1.0" encoding="UTF-8"?>

<!-- generated on 2026-02-08 22:28:17.678802 by Eclipse SUMO routeSampler.py v1_25_0+0000-ac6c5a6752d
<configuration>
    <route-files value=".\candidates.rou.xml"/>
    <edgedata-files value=".\edge_counts\zimak_edgedata.xml"/>
    <edgedata-attribute value="flow"/>
    <output-file value=".\sampled.rou.xml"/>
    <attributes value="departLane="best" departPos="base" departSpeed="max""/>
    <write-flows value="number"/>
    <optimize value="full"/>
</configuration>
-->

<routes xmlns:xsi="http://www.w3.org/2001/XMLSchema-instance" xsi:noNamespaceSchemaLocation="http://sumo.dlr.de/xsd/routes_file.xsd">
<!-- begin="0.0" end="3600.0" -->
    <flow id="0_206" begin="7.20" end="3600.00" number="288" departLane="best" departPos="base" departSpeed="max">
        <route edges="-103324001 319556737 -103324012#0 -1114892212 -1114892217 -559018920 1114892215#0 178433388#1 746063393 498389378#0 1172592064#0 559025252 1172592059 559099455 1172592063 1172592065 498389377 38710676#0 38710676#2 38710676#10"/>
    </flow>
    <flow id="0_108" begin="9.35" end="3600.00" number="288" departLane="best" departPos="base" departSpeed="max">
        <route edges="-1024800687 -235377233#1 -235377233#0 -4309985#2 -386756603#2 -356503092 -154771129 -1064816960 386756602#0 -187986575#1 1072681687 187986577 1072681686 -140853131#1 -1072681692#1 -1072681689#0 -8064341#6 -8064341#5 -8064341#4 -8064341#1 -1191864098 -1221959859 -386770310#1 -556299732 -254644871 -559099465 -559099466 -559099464 -173170901#1 -173170901#0 -498389377 -1172592065 -1172592063 -559099455 -1172592059 -559025252 -1172592064#1 -498389378#1 -746063393 -1114912802 48977235#0 48977235#1 -229759102"/>
    </flow>
    <flow id="0_423" begin="10.64" end="3600.00" number="288" departLane="best" departPos="base" departSpeed="max">
        <route edges="-1035575234 8588029#0 4345091#3 1242501680 4345092#0 1195656827#0 1195656827#1 559384192 498389378#0 1172592064#0 559025252 1172592059 559099455 1172592063 1172592065 498389377 4309981 173170901#1 559099464 559099466 559099465 254644871 181469580 556299731 1191864097#0 8064341#0 8064341#2 8064341#5 -1107978775 1107978773#1 -1107978773#1"/>
    </flow>
    <flow id="0_55" begin="12.28" end="3600.00" number="288" departLane="best" departPos="base" departSpeed="max">
        <route edges="-1024278850#0 -281390183 728859190 1024278850#0 419164932#1 559758444 82282517#0 -746165249 -559661612#1 -559661612#0 -178433387 -559661613#2 -1202330403 559405366 498389361#0 -1202330407#1 -559405368 -559405367 -559405369 -746065785"/>
    </flow>
<!-- begin="3600.0" end="7200.0" -->
    <flow id="3600_423" begin="3603.20" end="7200.00" number="315" departLane="best" departPos="base" departSpeed="max">
        <route edges="-1035575234 8588029#0 4345091#3 1242501680 4345092#0 1195656827#0 1195656827#1 559384192 498389378#0 1172592064#0 559025252 1172592059 559099455 1172592063 1172592065 498389377 4309981 173170901#1 559099464 559099466 559099465 254644871 181469580 556299731 1191864097#0 8064341#0 8064341#2 8064341#5 -1107978775 1107978773#1 -1107978773#1"/>
    </flow>
    <flow id="3600_108" begin="3605.83" end="7200.00" number="315" departLane="best" departPos="base" departSpeed="max">
        <route edges="-1024800687 -235377233#1 -235377233#0 -4309985#2 -386756603#2 -356503092 -154771129 -1064816960 386756602#0 -187986575#1 1072681687 187986577 1072681686 -140853131#1 -1072681692#1 -1072681689#0 -8064341#6 -8064341#5 -8064341#4 -8064341#1 -1191864098 -1221959859 -386770310#1 -556299732 -254644871 -559099465 -559099466 -559099464 -173170901#1 -173170901#0 -498389377 -1172592065 -1172592063 -559099455 -1172592059 -559025252 -1172592064#1 -498389378#1 -746063393 -1114912802 48977235#0 48977235#1 -229759102"/>
    </flow>
    <flow id="3600_55" begin="3608.85" end="7200.00" number="315" departLane="best" departPos="base" departSpeed="max">
        <route edges="-1024278850#0 -281390183 728859190 1024278850#0 419164932#1 559758444 82282517#0 -746165249 -559661612#1 -559661612#0 -178433387 -559661613#2 -1202330403 559405366 498389361#0 -1202330407#1 -559405368 -559405367 -559405369 -746065785"/>
    </flow>
    <flow id="3600_206" begin="3610.74" end="7200.00" number="315" departLane="best" departPos="base" departSpeed="max">
        <route edges="-103324001 319556737 -103324012#0 -1114892212 -1114892217 -559018920 1114892215#0 178433388#1 746063393 498389378#0 1172592064#0 559025252 1172592059 559099455 1172592063 1172592065 498389377 38710676#0 38710676#2 38710676#10"/>
    </flow>
<!-- begin="7200.0" end="10800.0" -->
    <flow id="7200_206" begin="7200.83" end="10800.00" number="798" departLane="best" departPos="base" departSpeed="max">
        <route edges="-103324001 319556737 -103324012#0 -1114892212 -1114892217 -559018920 1114892215#0 178433388#1 746063393 498389378#0 1172592064#0 559025252 1172592059 559099455 1172592063 1172592065 498389377 38710676#0 38710676#2 38710676#10"/>
    </flow>
    <flow id="7200_55" begin="7200.88" end="10800.00" number="798" departLane="best" departPos="base" departSpeed="max">
        <route edges="-1024278850#0 -281390183 728859190 1024278850#0 419164932#1 559758444 82282517#0 -746165249 -559661612#1 -559661612#0 -178433387 -559661613#2 -1202330403 559405366 498389361#0 -1202330407#1 -559405368 -559405367 -559405369 -746065785"/>
    </flow>
    <flow id="7200_423" begin="7201.06" end="10800.00" number="798" departLane="best" departPos="base" departSpeed="max">
        <route edges="-1035575234 8588029#0 4345091#3 1242501680 4345092#0 1195656827#0 1195656827#1 559384192 498389378#0 1172592064#0 559025252 1172592059 559099455 1172592063 1172592065 498389377 4309981 173170901#1 559099464 559099466 559099465 254644871 181469580 556299731 1191864097#0 8064341#0 8064341#2 8064341#5 -1107978775 1107978773#1 -1107978773#1"/>
    </flow>
    <flow id="7200_108" begin="7203.56" end="10800.00" number="798" departLane="best" departPos="base" departSpeed="max">
        <route edges="-1024800687 -235377233#1 -235377233#0 -4309985#2 -386756603#2 -356503092 -154771129 -1064816960 386756602#0 -187986575#1 1072681687 187986577 1072681686 -140853131#1 -1072681692#1 -1072681689#0 -8064341#6 -8064341#5 -8064341#4 -8064341#1 -1191864098 -1221959859 -386770310#1 -556299732 -254644871 -559099465 -559099466 -559099464 -173170901#1 -173170901#0 -498389377 -1172592065 -1172592063 -559099455 -1172592059 -559025252 -1172592064#1 -498389378#1 -746063393 -1114912802 48977235#0 48977235#1 -229759102"/>
    </flow>
<!-- begin="10800.0" end="14400.0" -->
    <flow id="10800_206" begin="10800.24" end="14400.00" number="3282" departLane="best" departPos="base" departSpeed="max">
        <route edges="-103324001 319556737 -103324012#0 -1114892212 -1114892217 -559018920 1114892215#0 178433388#1 746063393 498389378#0 1172592064#0 559025252 1172592059 559099455 1172592063 1172592065 498389377 38710676#0 38710676#2 38710676#10"/>
    </flow>
    <flow id="10800_423" begin="10800.38" end="14400.00" number="3282" departLane="best" departPos="base" departSpeed="max">
        <route edges="-1035575234 8588029#0 4345091#3 1242501680 4345092#0 1195656827#0 1195656827#1 559384192 498389378#0 1172592064#0 559025252 1172592059 559099455 1172592063 1172592065 498389377 4309981 173170901#1 559099464 559099466 559099465 254644871 181469580 556299731 1191864097#0 8064341#0 8064341#2 8064341#5 -1107978775 1107978773#1 -1107978773#1"/>
    </flow>
    <flow id="10800_108" begin="10800.80" end="14400.00" number="3282" departLane="best" departPos="base" departSpeed="max">
        <route edges="-1024800687 -235377233#1 -235377233#0 -4309985#2 -386756603#2 -356503092 -154771129 -1064816960 386756602#0 -187986575#1 1072681687 187986577 1072681686 -140853131#1 -1072681692#1 -1072681689#0 -8064341#6 -8064341#5 -8064341#4 -8064341#1 -1191864098 -1221959859 -386770310#1 -556299732 -254644871 -559099465 -559099466 -559099464 -173170901#1 -173170901#0 -498389377 -1172592065 -1172592063 -559099455 -1172592059 -559025252 -1172592064#1 -498389378#1 -746063393 -1114912802 48977235#0 48977235#1 -229759102"/>
    </flow>
    <flow id="10800_55" begin="10801.08" end="14400.00" number="3282" departLane="best" departPos="base" departSpeed="max">
        <route edges="-1024278850#0 -281390183 728859190 1024278850#0 419164932#1 559758444 82282517#0 -746165249 -559661612#1 -559661612#0 -178433387 -559661613#2 -1202330403 559405366 498389361#0 -1202330407#1 -559405368 -559405367 -559405369 -746065785"/>
    </flow>
<!-- begin="14400.0" end="18000.0" -->
    <flow id="14400_423" begin="14400.07" end="18000.00" number="5742" departLane="best" departPos="base" departSpeed="max">
        <route edges="-1035575234 8588029#0 4345091#3 1242501680 4345092#0 1195656827#0 1195656827#1 559384192 498389378#0 1172592064#0 559025252 1172592059 559099455 1172592063 1172592065 498389377 4309981 173170901#1 559099464 559099466 559099465 254644871 181469580 556299731 1191864097#0 8064341#0 8064341#2 8064341#5 -1107978775 1107978773#1 -1107978773#1"/>
    </flow>
    <flow id="14400_55" begin="14400.12" end="18000.00" number="5742" departLane="best" departPos="base" departSpeed="max">
        <route edges="-1024278850#0 -281390183 728859190 1024278850#0 419164932#1 559758444 82282517#0 -746165249 -559661612#1 -559661612#0 -178433387 -559661613#2 -1202330403 559405366 498389361#0 -1202330407#1 -559405368 -559405367 -559405369 -746065785"/>
    </flow>
    <flow id="14400_206" begin="14400.40" end="18000.00" number="5742" departLane="best" departPos="base" departSpeed="max">
        <route edges="-103324001 319556737 -103324012#0 -1114892212 -1114892217 -559018920 1114892215#0 178433388#1 746063393 498389378#0 1172592064#0 559025252 1172592059 559099455 1172592063 1172592065 498389377 38710676#0 38710676#2 38710676#10"/>
    </flow>
    <flow id="14400_108" begin="14400.52" end="18000.00" number="5742" departLane="best" departPos="base" departSpeed="max">
        <route edges="-1024800687 -235377233#1 -235377233#0 -4309985#2 -386756603#2 -356503092 -154771129 -1064816960 386756602#0 -187986575#1 1072681687 187986577 1072681686 -140853131#1 -1072681692#1 -1072681689#0 -8064341#6 -8064341#5 -8064341#4 -8064341#1 -1191864098 -1221959859 -386770310#1 -556299732 -254644871 -559099465 -559099466 -559099464 -173170901#1 -173170901#0 -498389377 -1172592065 -1172592063 -559099455 -1172592059 -559025252 -1172592064#1 -498389378#1 -746063393 -1114912802 48977235#0 48977235#1 -229759102"/>
    </flow>
<!-- begin="18000.0" end="21600.0" -->
    <flow id="18000_108" begin="18000.19" end="21600.00" number="8955" departLane="best" departPos="base" departSpeed="max">
        <route edges="-1024800687 -235377233#1 -235377233#0 -4309985#2 -386756603#2 -356503092 -154771129 -1064816960 386756602#0 -187986575#1 1072681687 187986577 1072681686 -140853131#1 -1072681692#1 -1072681689#0 -8064341#6 -8064341#5 -8064341#4 -8064341#1 -1191864098 -1221959859 -386770310#1 -556299732 -254644871 -559099465 -559099466 -559099464 -173170901#1 -173170901#0 -498389377 -1172592065 -1172592063 -559099455 -1172592059 -559025252 -1172592064#1 -498389378#1 -746063393 -1114912802 48977235#0 48977235#1 -229759102"/>
    </flow>
    <flow id="18000_423" begin="18000.21" end="21600.00" number="8955" departLane="best" departPos="base" departSpeed="max">
        <route edges="-1035575234 8588029#0 4345091#3 1242501680 4345092#0 1195656827#0 1195656827#1 559384192 498389378#0 1172592064#0 559025252 1172592059 559099455 1172592063 1172592065 498389377 4309981 173170901#1 559099464 559099466 559099465 254644871 181469580 556299731 1191864097#0 8064341#0 8064341#2 8064341#5 -1107978775 1107978773#1 -1107978773#1"/>
    </flow>
    <flow id="18000_206" begin="18000.27" end="21600.00" number="8955" departLane="best" departPos="base" departSpeed="max">
        <route edges="-103324001 319556737 -103324012#0 -1114892212 -1114892217 -559018920 1114892215#0 178433388#1 746063393 498389378#0 1172592064#0 559025252 1172592059 559099455 1172592063 1172592065 498389377 38710676#0 38710676#2 38710676#10"/>
    </flow>
    <flow id="18000_55" begin="18000.28" end="21600.00" number="8955" departLane="best" departPos="base" departSpeed="max">
        <route edges="-1024278850#0 -281390183 728859190 1024278850#0 419164932#1 559758444 82282517#0 -746165249 -559661612#1 -559661612#0 -178433387 -559661613#2 -1202330403 559405366 498389361#0 -1202330407#1 -559405368 -559405367 -559405369 -746065785"/>
    </flow>
<!-- begin="21600.0" end="25200.0" -->
    <flow id="21600_206" begin="21600.11" end="25200.00" number="7992" departLane="best" departPos="base" departSpeed="max">
        <route edges="-103324001 319556737 -103324012#0 -1114892212 -1114892217 -559018920 1114892215#0 178433388#1 746063393 498389378#0 1172592064#0 559025252 1172592059 559099455 1172592063 1172592065 498389377 38710676#0 38710676#2 38710676#10"/>
    </flow>
    <flow id="21600_108" begin="21600.22" end="25200.00" number="7992" departLane="best" departPos="base" departSpeed="max">
        <route edges="-1024800687 -235377233#1 -235377233#0 -4309985#2 -386756603#2 -356503092 -154771129 -1064816960 386756602#0 -187986575#1 1072681687 187986577 1072681686 -140853131#1 -1072681692#1 -1072681689#0 -8064341#6 -8064341#5 -8064341#4 -8064341#1 -1191864098 -1221959859 -386770310#1 -556299732 -254644871 -559099465 -559099466 -559099464 -173170901#1 -173170901#0 -498389377 -1172592065 -1172592063 -559099455 -1172592059 -559025252 -1172592064#1 -498389378#1 -746063393 -1114912802 48977235#0 48977235#1 -229759102"/>
    </flow>
    <flow id="21600_55" begin="21600.26" end="25200.00" number="7992" departLane="best" departPos="base" departSpeed="max">
        <route edges="-1024278850#0 -281390183 728859190 1024278850#0 419164932#1 559758444 82282517#0 -746165249 -559661612#1 -559661612#0 -178433387 -559661613#2 -1202330403 559405366 498389361#0 -1202330407#1 -559405368 -559405367 -559405369 -746065785"/>
    </flow>
    <flow id="21600_423" begin="21600.41" end="25200.00" number="7992" departLane="best" departPos="base" departSpeed="max">
        <route edges="-1035575234 8588029#0 4345091#3 1242501680 4345092#0 1195656827#0 1195656827#1 559384192 498389378#0 1172592064#0 559025252 1172592059 559099455 1172592063 1172592065 498389377 4309981 173170901#1 559099464 559099466 559099465 254644871 181469580 556299731 1191864097#0 8064341#0 8064341#2 8064341#5 -1107978775 1107978773#1 -1107978773#1"/>
    </flow>
<!-- begin="25200.0" end="28800.0" -->
    <flow id="25200_423" begin="25200.17" end="28800.00" number="7797" departLane="best" departPos="base" departSpeed="max">
        <route edges="-1035575234 8588029#0 4345091#3 1242501680 4345092#0 1195656827#0 1195656827#1 559384192 498389378#0 1172592064#0 559025252 1172592059 559099455 1172592063 1172592065 498389377 4309981 173170901#1 559099464 559099466 559099465 254644871 181469580 556299731 1191864097#0 8064341#0 8064341#2 8064341#5 -1107978775 1107978773#1 -1107978773#1"/>
    </flow>
    <flow id="25200_108" begin="25200.25" end="28800.00" number="7797" departLane="best" departPos="base" departSpeed="max">
        <route edges="-1024800687 -235377233#1 -235377233#0 -4309985#2 -386756603#2 -356503092 -154771129 -1064816960 386756602#0 -187986575#1 1072681687 187986577 1072681686 -140853131#1 -1072681692#1 -1072681689#0 -8064341#6 -8064341#5 -8064341#4 -8064341#1 -1191864098 -1221959859 -386770310#1 -556299732 -254644871 -559099465 -559099466 -559099464 -173170901#1 -173170901#0 -498389377 -1172592065 -1172592063 -559099455 -1172592059 -559025252 -1172592064#1 -498389378#1 -746063393 -1114912802 48977235#0 48977235#1 -229759102"/>
    </flow>
    <flow id="25200_206" begin="25200.30" end="28800.00" number="7797" departLane="best" departPos="base" departSpeed="max">
        <route edges="-103324001 319556737 -103324012#0 -1114892212 -1114892217 -559018920 1114892215#0 178433388#1 746063393 498389378#0 1172592064#0 559025252 1172592059 559099455 1172592063 1172592065 498389377 38710676#0 38710676#2 38710676#10"/>
    </flow>
    <flow id="25200_55" begin="25200.32" end="28800.00" number="7797" departLane="best" departPos="base" departSpeed="max">
        <route edges="-1024278850#0 -281390183 728859190 1024278850#0 419164932#1 559758444 82282517#0 -746165249 -559661612#1 -559661612#0 -178433387 -559661613#2 -1202330403 559405366 498389361#0 -1202330407#1 -559405368 -559405367 -559405369 -746065785"/>
    </flow>
<!-- begin="28800.0" end="32400.0" -->
    <flow id="28800_423" begin="28800.03" end="32400.00" number="8052" departLane="best" departPos="base" departSpeed="max">
        <route edges="-1035575234 8588029#0 4345091#3 1242501680 4345092#0 1195656827#0 1195656827#1 559384192 498389378#0 1172592064#0 559025252 1172592059 559099455 1172592063 1172592065 498389377 4309981 173170901#1 559099464 559099466 559099465 254644871 181469580 556299731 1191864097#0 8064341#0 8064341#2 8064341#5 -1107978775 1107978773#1 -1107978773#1"/>
    </flow>
    <flow id="28800_55" begin="28800.15" end="32400.00" number="8052" departLane="best" departPos="base" departSpeed="max">
        <route edges="-1024278850#0 -281390183 728859190 1024278850#0 419164932#1 559758444 82282517#0 -746165249 -559661612#1 -559661612#0 -178433387 -559661613#2 -1202330403 559405366 498389361#0 -1202330407#1 -559405368 -559405367 -559405369 -746065785"/>
    </flow>
    <flow id="28800_206" begin="28800.33" end="32400.00" number="8052" departLane="best" departPos="base" departSpeed="max">
        <route edges="-103324001 319556737 -103324012#0 -1114892212 -1114892217 -559018920 1114892215#0 178433388#1 746063393 498389378#0 1172592064#0 559025252 1172592059 559099455 1172592063 1172592065 498389377 38710676#0 38710676#2 38710676#10"/>
    </flow>
    <flow id="28800_108" begin="28800.45" end="32400.00" number="8052" departLane="best" departPos="base" departSpeed="max">
        <route edges="-1024800687 -235377233#1 -235377233#0 -4309985#2 -386756603#2 -356503092 -154771129 -1064816960 386756602#0 -187986575#1 1072681687 187986577 1072681686 -140853131#1 -1072681692#1 -1072681689#0 -8064341#6 -8064341#5 -8064341#4 -8064341#1 -1191864098 -1221959859 -386770310#1 -556299732 -254644871 -559099465 -559099466 -559099464 -173170901#1 -173170901#0 -498389377 -1172592065 -1172592063 -559099455 -1172592059 -559025252 -1172592064#1 -498389378#1 -746063393 -1114912802 48977235#0 48977235#1 -229759102"/>
    </flow>
<!-- begin="32400.0" end="36000.0" -->
    <flow id="32400_423" begin="32400.03" end="36000.00" number="8610" departLane="best" departPos="base" departSpeed="max">
        <route edges="-1035575234 8588029#0 4345091#3 1242501680 4345092#0 1195656827#0 1195656827#1 559384192 498389378#0 1172592064#0 559025252 1172592059 559099455 1172592063 1172592065 498389377 4309981 173170901#1 559099464 559099466 559099465 254644871 181469580 556299731 1191864097#0 8064341#0 8064341#2 8064341#5 -1107978775 1107978773#1 -1107978773#1"/>
    </flow>
    <flow id="32400_108" begin="32400.22" end="36000.00" number="8610" departLane="best" departPos="base" departSpeed="max">
        <route edges="-1024800687 -235377233#1 -235377233#0 -4309985#2 -386756603#2 -356503092 -154771129 -1064816960 386756602#0 -187986575#1 1072681687 187986577 1072681686 -140853131#1 -1072681692#1 -1072681689#0 -8064341#6 -8064341#5 -8064341#4 -8064341#1 -1191864098 -1221959859 -386770310#1 -556299732 -254644871 -559099465 -559099466 -559099464 -173170901#1 -173170901#0 -498389377 -1172592065 -1172592063 -559099455 -1172592059 -559025252 -1172592064#1 -498389378#1 -746063393 -1114912802 48977235#0 48977235#1 -229759102"/>
    </flow>
    <flow id="32400_55" begin="32400.30" end="36000.00" number="8610" departLane="best" departPos="base" departSpeed="max">
        <route edges="-1024278850#0 -281390183 728859190 1024278850#0 419164932#1 559758444 82282517#0 -746165249 -559661612#1 -559661612#0 -178433387 -559661613#2 -1202330403 559405366 498389361#0 -1202330407#1 -559405368 -559405367 -559405369 -746065785"/>
    </flow>
    <flow id="32400_206" begin="32400.40" end="36000.00" number="8610" departLane="best" departPos="base" departSpeed="max">
        <route edges="-103324001 319556737 -103324012#0 -1114892212 -1114892217 -559018920 1114892215#0 178433388#1 746063393 498389378#0 1172592064#0 559025252 1172592059 559099455 1172592063 1172592065 498389377 38710676#0 38710676#2 38710676#10"/>
    </flow>
<!-- begin="36000.0" end="39600.0" -->
    <flow id="36000_206" begin="36000.03" end="39600.00" number="8529" departLane="best" departPos="base" departSpeed="max">
        <route edges="-103324001 319556737 -103324012#0 -1114892212 -1114892217 -559018920 1114892215#0 178433388#1 746063393 498389378#0 1172592064#0 559025252 1172592059 559099455 1172592063 1172592065 498389377 38710676#0 38710676#2 38710676#10"/>
    </flow>
    <flow id="36000_423" begin="36000.10" end="39600.00" number="8529" departLane="best" departPos="base" departSpeed="max">
        <route edges="-1035575234 8588029#0 4345091#3 1242501680 4345092#0 1195656827#0 1195656827#1 559384192 498389378#0 1172592064#0 559025252 1172592059 559099455 1172592063 1172592065 498389377 4309981 173170901#1 559099464 559099466 559099465 254644871 181469580 556299731 1191864097#0 8064341#0 8064341#2 8064341#5 -1107978775 1107978773#1 -1107978773#1"/>
    </flow>
    <flow id="36000_55" begin="36000.17" end="39600.00" number="8529" departLane="best" departPos="base" departSpeed="max">
        <route edges="-1024278850#0 -281390183 728859190 1024278850#0 419164932#1 559758444 82282517#0 -746165249 -559661612#1 -559661612#0 -178433387 -559661613#2 -1202330403 559405366 498389361#0 -1202330407#1 -559405368 -559405367 -559405369 -746065785"/>
    </flow>
    <flow id="36000_108" begin="36000.20" end="39600.00" number="8529" departLane="best" departPos="base" departSpeed="max">
        <route edges="-1024800687 -235377233#1 -235377233#0 -4309985#2 -386756603#2 -356503092 -154771129 -1064816960 386756602#0 -187986575#1 1072681687 187986577 1072681686 -140853131#1 -1072681692#1 -1072681689#0 -8064341#6 -8064341#5 -8064341#4 -8064341#1 -1191864098 -1221959859 -386770310#1 -556299732 -254644871 -559099465 -559099466 -559099464 -173170901#1 -173170901#0 -498389377 -1172592065 -1172592063 -559099455 -1172592059 -559025252 -1172592064#1 -498389378#1 -746063393 -1114912802 48977235#0 48977235#1 -229759102"/>
    </flow>
<!-- begin="39600.0" end="43200.0" -->
    <flow id="39600_206" begin="39600.07" end="43200.00" number="8553" departLane="best" departPos="base" departSpeed="max">
        <route edges="-103324001 319556737 -103324012#0 -1114892212 -1114892217 -559018920 1114892215#0 178433388#1 746063393 498389378#0 1172592064#0 559025252 1172592059 559099455 1172592063 1172592065 498389377 38710676#0 38710676#2 38710676#10"/>
    </flow>
    <flow id="39600_55" begin="39600.23" end="43200.00" number="8553" departLane="best" departPos="base" departSpeed="max">
        <route edges="-1024278850#0 -281390183 728859190 1024278850#0 419164932#1 559758444 82282517#0 -746165249 -559661612#1 -559661612#0 -178433387 -559661613#2 -1202330403 559405366 498389361#0 -1202330407#1 -559405368 -559405367 -559405369 -746065785"/>
    </flow>
    <flow id="39600_108" begin="39600.32" end="43200.00" number="8553" departLane="best" departPos="base" departSpeed="max">
        <route edges="-1024800687 -235377233#1 -235377233#0 -4309985#2 -386756603#2 -356503092 -154771129 -1064816960 386756602#0 -187986575#1 1072681687 187986577 1072681686 -140853131#1 -1072681692#1 -1072681689#0 -8064341#6 -8064341#5 -8064341#4 -8064341#1 -1191864098 -1221959859 -386770310#1 -556299732 -254644871 -559099465 -559099466 -559099464 -173170901#1 -173170901#0 -498389377 -1172592065 -1172592063 -559099455 -1172592059 -559025252 -1172592064#1 -498389378#1 -746063393 -1114912802 48977235#0 48977235#1 -229759102"/>
    </flow>
    <flow id="39600_423" begin="39600.38" end="43200.00" number="8553" departLane="best" departPos="base" departSpeed="max">
        <route edges="-1035575234 8588029#0 4345091#3 1242501680 4345092#0 1195656827#0 1195656827#1 559384192 498389378#0 1172592064#0 559025252 1172592059 559099455 1172592063 1172592065 498389377 4309981 173170901#1 559099464 559099466 559099465 254644871 181469580 556299731 1191864097#0 8064341#0 8064341#2 8064341#5 -1107978775 1107978773#1 -1107978773#1"/>
    </flow>
<!-- begin="43200.0" end="46800.0" -->
    <flow id="43200_206" begin="43200.11" end="46800.00" number="9090" departLane="best" departPos="base" departSpeed="max">
        <route edges="-103324001 319556737 -103324012#0 -1114892212 -1114892217 -559018920 1114892215#0 178433388#1 746063393 498389378#0 1172592064#0 559025252 1172592059 559099455 1172592063 1172592065 498389377 38710676#0 38710676#2 38710676#10"/>
    </flow>
    <flow id="43200_108" begin="43200.12" end="46800.00" number="9090" departLane="best" departPos="base" departSpeed="max">
        <route edges="-1024800687 -235377233#1 -235377233#0 -4309985#2 -386756603#2 -356503092 -154771129 -1064816960 386756602#0 -187986575#1 1072681687 187986577 1072681686 -140853131#1 -1072681692#1 -1072681689#0 -8064341#6 -8064341#5 -8064341#4 -8064341#1 -1191864098 -1221959859 -386770310#1 -556299732 -254644871 -559099465 -559099466 -559099464 -173170901#1 -173170901#0 -498389377 -1172592065 -1172592063 -559099455 -1172592059 -559025252 -1172592064#1 -498389378#1 -746063393 -1114912802 48977235#0 48977235#1 -229759102"/>
    </flow>
    <flow id="43200_55" begin="43200.35" end="46800.00" number="9090" departLane="best" departPos="base" departSpeed="max">
        <route edges="-1024278850#0 -281390183 728859190 1024278850#0 419164932#1 559758444 82282517#0 -746165249 -559661612#1 -559661612#0 -178433387 -559661613#2 -1202330403 559405366 498389361#0 -1202330407#1 -559405368 -559405367 -559405369 -746065785"/>
    </flow>
    <flow id="43200_423" begin="43200.38" end="46800.00" number="9090" departLane="best" departPos="base" departSpeed="max">
        <route edges="-1035575234 8588029#0 4345091#3 1242501680 4345092#0 1195656827#0 1195656827#1 559384192 498389378#0 1172592064#0 559025252 1172592059 559099455 1172592063 1172592065 498389377 4309981 173170901#1 559099464 559099466 559099465 254644871 181469580 556299731 1191864097#0 8064341#0 8064341#2 8064341#5 -1107978775 1107978773#1 -1107978773#1"/>
    </flow>
<!-- begin="46800.0" end="50400.0" -->
    <flow id="46800_55" begin="46800.10" end="50400.00" number="8721" departLane="best" departPos="base" departSpeed="max">
        <route edges="-1024278850#0 -281390183 728859190 1024278850#0 419164932#1 559758444 82282517#0 -746165249 -559661612#1 -559661612#0 -178433387 -559661613#2 -1202330403 559405366 498389361#0 -1202330407#1 -559405368 -559405367 -559405369 -746065785"/>
    </flow>
    <flow id="46800_108" begin="46800.16" end="50400.00" number="8721" departLane="best" departPos="base" departSpeed="max">
        <route edges="-1024800687 -235377233#1 -235377233#0 -4309985#2 -386756603#2 -356503092 -154771129 -1064816960 386756602#0 -187986575#1 1072681687 187986577 1072681686 -140853131#1 -1072681692#1 -1072681689#0 -8064341#6 -8064341#5 -8064341#4 -8064341#1 -1191864098 -1221959859 -386770310#1 -556299732 -254644871 -559099465 -559099466 -559099464 -173170901#1 -173170901#0 -498389377 -1172592065 -1172592063 -559099455 -1172592059 -559025252 -1172592064#1 -498389378#1 -746063393 -1114912802 48977235#0 48977235#1 -229759102"/>
    </flow>
    <flow id="46800_206" begin="46800.21" end="50400.00" number="8721" departLane="best" departPos="base" departSpeed="max">
        <route edges="-103324001 319556737 -103324012#0 -1114892212 -1114892217 -559018920 1114892215#0 178433388#1 746063393 498389378#0 1172592064#0 559025252 1172592059 559099455 1172592063 1172592065 498389377 38710676#0 38710676#2 38710676#10"/>
    </flow>
    <flow id="46800_423" begin="46800.34" end="50400.00" number="8721" departLane="best" departPos="base" departSpeed="max">
        <route edges="-1035575234 8588029#0 4345091#3 1242501680 4345092#0 1195656827#0 1195656827#1 559384192 498389378#0 1172592064#0 559025252 1172592059 559099455 1172592063 1172592065 498389377 4309981 173170901#1 559099464 559099466 559099465 254644871 181469580 556299731 1191864097#0 8064341#0 8064341#2 8064341#5 -1107978775 1107978773#1 -1107978773#1"/>
    </flow>
<!-- begin="50400.0" end="54000.0" -->
    <flow id="50400_423" begin="50400.04" end="54000.00" number="9066" departLane="best" departPos="base" departSpeed="max">
        <route edges="-1035575234 8588029#0 4345091#3 1242501680 4345092#0 1195656827#0 1195656827#1 559384192 498389378#0 1172592064#0 559025252 1172592059 559099455 1172592063 1172592065 498389377 4309981 173170901#1 559099464 559099466 559099465 254644871 181469580 556299731 1191864097#0 8064341#0 8064341#2 8064341#5 -1107978775 1107978773#1 -1107978773#1"/>
    </flow>
    <flow id="50400_206" begin="50400.07" end="54000.00" number="9066" departLane="best" departPos="base" departSpeed="max">
        <route edges="-103324001 319556737 -103324012#0 -1114892212 -1114892217 -559018920 1114892215#0 178433388#1 746063393 498389378#0 1172592064#0 559025252 1172592059 559099455 1172592063 1172592065 498389377 38710676#0 38710676#2 38710676#10"/>
    </flow>
    <flow id="50400_55" begin="50400.12" end="54000.00" number="9066" departLane="best" departPos="base" departSpeed="max">
        <route edges="-1024278850#0 -281390183 728859190 1024278850#0 419164932#1 559758444 82282517#0 -746165249 -559661612#1 -559661612#0 -178433387 -559661613#2 -1202330403 559405366 498389361#0 -1202330407#1 -559405368 -559405367 -559405369 -746065785"/>
    </flow>
    <flow id="50400_108" begin="50400.37" end="54000.00" number="9066" departLane="best" departPos="base" departSpeed="max">