<?xml version="1.0" encoding="UTF-8"?>

<!-- generated on 2024-12-01 01:51:41.473603 by randomTrips.py UNKNOWN
<configuration>
    <net-file value="osm.net.xml.gz"/>
    <output-trip-file value="/home/denis/SmarTTeam/trnavaflow/trnavaflow/data/sumo_network/osm.passenger.trips.xml"/>
    <route-file value="/home/denis/SmarTTeam/trnavaflow/trnavaflow/data/sumo_network/osm.passenger.rou.xml"/>
    <prefix value="veh"/>
    <trip-attributes value="departLane=&quot;best&quot;"/>
    <fringe-start-attributes value="departSpeed=&quot;max&quot;"/>
    <vehicle-class value="passenger"/>
    <lanes value="True"/>
    <fringe-factor value="5"/>
    <allow-fringe.min-length value="1000.0"/>
    <via-edge-types value="highway.motorway,highway.motorway_link,highway.trunk_link,highway.primary_link,highway.secondary_link,highway.tertiary_link"/>
    <min-distance value="300.0"/>
    <min-distance.fringe value="10.0"/>
    <remove-loops value="True"/>
    <validate value="True"/>
    <insertion-density value="43.0"/>
</configuration>
-->

<routes xmlns:xsi="http://www.w3.org/2001/XMLSchema-instance" xsi:noNamespaceSchemaLocation="http://sumo.dlr.de/xsd/routes_file.xsd">
    <vType id="veh_passenger" vClass="passenger"/>
    <trip id="veh0" depart="0.00" from="140848347#2" to="-1081524783#1" departLane="best" type="veh_passenger"/>
    <trip id="veh1" depart="0.28" from="-4385332" to="-4688967#1" departLane="best" type="veh_passenger" departSpeed="max"/>
    <trip id="veh2" depart="0.56" from="30743450#0" to="31712127#5" departLane="best" type="veh_passenger"/>
    <trip id="veh3" depart="0.85" from="660801232" to="-1224791404" departLane="best" type="veh_passenger"/>
    <trip id="veh4" depart="1.13" from="-8064362#1" to="-1081838413#0" departLane="best" type="veh_passenger"/>
    <trip id="veh5" depart="1.41" from="-29145014#1" to="1285104653" departLane="best" type="veh_passenger" departSpeed="max"/>
    <trip id="veh6" depart="1.69" from="-1081838413#0" to="-365258728" departLane="best" type="veh_passenger"/>
    <trip id="veh7" depart="1.97" from="173170899" to="159105149#4" departLane="best" type="veh_passenger"/>
    <trip id="veh8" depart="2.26" from="-29543967" to="237730064#2" departLane="best" type="veh_passenger" departSpeed="max"/>
    <trip id="veh9" depart="2.54" from="48215233#1" to="-1043453147#3" departLane="best" type="veh_passenger"/>
    <trip id="veh10" depart="2.82" from="4688967#2" to="367717755#0" departLane="best" type="veh_passenger"/>
    <trip id="veh11" depart="3.10" from="-611914707" to="-255876457" departLane="best" type="veh_passenger" departSpeed="max"/>
    <trip id="veh12" depart="3.39" from="837540935" to="-8588062#3" departLane="best" type="veh_passenger"/>
    <trip id="veh13" depart="3.67" from="-1206408816#2" to="-1285175184" departLane="best" type="veh_passenger" departSpeed="max"/>
    <trip id="veh14" depart="3.95" from="55941271" to="255817840#1" departLane="best" type="veh_passenger" departSpeed="max"/>
    <trip id="veh15" depart="4.23" from="4691186#2" to="4385332" departLane="best" type="veh_passenger"/>
    <trip id="veh16" depart="4.51" from="1125211278" to="8588028#0" departLane="best" type="veh_passenger"/>
    <trip id="veh17" depart="4.80" from="-642929650" to="169319914" departLane="best" type="veh_passenger" departSpeed="max"/>
    <trip id="veh18" depart="5.08" from="50307087#0" to="274149190" departLane="best" type="veh_passenger"/>
    <trip id="veh19" depart="5.36" from="572481376" to="225608205#3" departLane="best" type="veh_passenger"/>
    <trip id="veh20" depart="5.64" from="255876469" to="-1137018577#2" departLane="best" type="veh_passenger"/>
    <trip id="veh21" depart="5.92" from="-30742109" to="-759222212" departLane="best" type="veh_passenger" departSpeed="max"/>
    <trip id="veh22" depart="6.21" from="-1191864099" to="-48215240#1" departLane="best" type="veh_passenger"/>
    <trip id="veh23" depart="6.49" from="-1224791373" to="-642929651#0" departLane="best" type="veh_passenger"/>
    <trip id="veh24" depart="6.77" from="1316476977" to="1049620160#1" departLane="best" type="veh_passenger"/>
    <trip id="veh25" depart="7.05" from="-624125263#0" to="-38805478#1" departLane="best" type="veh_passenger"/>
    <trip id="veh26" depart="7.33" from="-38805478#0" to="8064414#0" departLane="best" type="veh_passenger"/>
    <trip id="veh27" depart="7.62" from="-235377233#1" to="4385332" departLane="best" type="veh_passenger"/>
    <trip id="veh28" depart="7.90" from="-225894933#4" to="1072685765" departLane="best" type="veh_passenger"/>
    <trip id="veh29" depart="8.18" from="8588113#0" to="281147134" departLane="best" type="veh_passenger"/>
    <trip id="veh30" depart="8.46" from="1183708026" to="364569732" departLane="best" type="veh_passenger" departSpeed="max"/>
    <trip id="veh31" depart="8.74" from="559099466" to="50307090" departLane="best" type="veh_passenger"/>
    <trip id="veh32" depart="9.03" from="-30742117#6" to="-1085565488" departLane="best" type="veh_passenger" departSpeed="max"/>
    <trip id="veh33" depart="9.31" from="-559099466" to="-611893670" departLane="best" type="veh_passenger"/>
    <trip id="veh34" depart="9.59" from="-282245666" to="810068761#1" departLane="best" type="veh_passenger" departSpeed="max"/>
    <trip id="veh35" depart="9.87" from="626381750#1" to="-8064380#4" departLane="best" type="veh_passenger"/>
    <trip id="veh36" depart="10.16" from="178433417" to="1097454786" departLane="best" type="veh_passenger"/>
    <trip id="veh37" depart="10.44" from="8064318#2" to="1196089575" departLane="best" type="veh_passenger"/>
    <trip id="veh38" depart="10.72" from="-38710676#11" to="-558293133#1" departLane="best" type="veh_passenger" departSpeed="max"/>
    <trip id="veh39" depart="11.00" from="1191864071" to="-560072171#1" departLane="best" type="veh_passenger"/>
    <trip id="veh40" depart="11.28" from="1224398278" to="8064312#0" departLane="best" type="veh_passenger"/>
    <trip id="veh41" depart="11.57" from="-746065785" to="-4434170#3" departLane="best" type="veh_passenger"/>
    <trip id="veh42" depart="11.85" from="873262585#0" to="1285156624" departLane="best" type="veh_passenger"/>
    <trip id="veh43" depart="12.13" from="-1202330403" to="-1137018584#0" departLane="best" type="veh_passenger"/>
    <trip id="veh44" depart="12.41" from="-1285104651#1" to="279496293" departLane="best" type="veh_passenger"/>
    <trip id="veh45" depart="12.69" from="4345619#0" to="1137018582" departLane="best" type="veh_passenger"/>
    <trip id="veh46" depart="12.98" from="-1161161672#1" to="1076620898#2" departLane="best" type="veh_passenger"/>
    <trip id="veh47" depart="13.26" from="873046488" to="1308786733" departLane="best" type="veh_passenger"/>
    <trip id="veh48" depart="13.54" from="8585848#1" to="642929652" departLane="best" type="veh_passenger"/>
    <trip id="veh49" depart="13.82" from="-1049620162#1" to="4309977" departLane="best" type="veh_passenger"/>
    <trip id="veh50" depart="14.10" from="23017675#0" to="140848339#5" departLane="best" type="veh_passenger"/>
    <trip id="veh51" depart="14.39" from="-38731951" to="281774053" departLane="best" type="veh_passenger"/>
    <trip id="veh52" depart="14.67" from="-1285104654" to="1161756109" departLane="best" type="veh_passenger"/>
    <trip id="veh53" depart="14.95" from="-8588040#1" to="838057521#0" departLane="best" type="veh_passenger" departSpeed="max"/>
    <trip id="veh54" depart="15.23" from="626255187" to="-561205386" departLane="best" type="veh_passenger" departSpeed="max"/>
    <trip id="veh55" depart="15.51" from="1072681686" to="-30728574#4" departLane="best" type="veh_passenger"/>
    <trip id="veh56" depart="15.80" from="8064315#0" to="659716037#0" departLane="best" type="veh_passenger"/>
    <trip id="veh57" depart="16.08" from="-486236942" to="281073864" departLane="best" type="veh_passenger"/>
    <trip id="veh58" depart="16.36" from="1269992724" to="-246938744" departLane="best" type="veh_passenger"/>
    <trip id="veh59" depart="16.64" from="367717740" to="140853131#0" departLane="best" type="veh_passenger"/>
    <trip id="veh60" depart="16.93" from="392155446" to="1308786735" departLane="best" type="veh_passenger"/>
    <trip id="veh61" depart="17.21" from="-1024278850#1" to="-837540947" departLane="best" type="veh_passenger"/>
    <trip id="veh62" depart="17.49" from="-1073033170" to="8064393#2" departLane="best" type="veh_passenger"/>
    <trip id="veh63" depart="17.77" from="642929648#0" to="611915571" departLane="best" type="veh_passenger"/>
    <trip id="veh64" depart="18.05" from="-5214713#0" to="-1172214229#0" departLane="best" type="veh_passenger"/>
    <trip id="veh65" depart="18.34" from="626917416#0" to="82282518#1" departLane="best" type="veh_passenger"/>
    <trip id="veh66" depart="18.62" from="-1195656827#0" to="1224791399" departLane="best" type="veh_passenger"/>
    <trip id="veh67" depart="18.90" from="-1164959177" to="48223039#8" departLane="best" type="veh_passenger" departSpeed="max"/>
    <trip id="veh68" depart="19.18" from="368992358" to="-190479304#2" departLane="best" type="veh_passenger"/>
    <trip id="veh69" depart="19.46" from="1030458719" to="167806514#1" departLane="best" type="veh_passenger"/>
    <trip id="veh70" depart="19.75" from="-38710676#11" to="659716053" departLane="best" type="veh_passenger" departSpeed="max"/>
    <trip id="veh71" depart="20.03" from="-8064364" to="-4309985#2" departLane="best" type="veh_passenger"/>
    <trip id="veh72" depart="20.31" from="1137018585#0" to="4385332" departLane="best" type="veh_passenger"/>
    <trip id="veh73" depart="20.59" from="-279496294#1" to="-8064361#1" departLane="best" type="veh_passenger" departSpeed="max"/>
    <trip id="veh74" depart="20.87" from="873046450" to="29145011#2" departLane="best" type="veh_passenger"/>
    <trip id="veh75" depart="21.16" from="-85643952" to="1290074922" departLane="best" type="veh_passenger"/>
    <trip id="veh76" depart="21.44" from="-1307803573#2" to="-4691186#0" departLane="best" type="veh_passenger" departSpeed="max"/>
    <trip id="veh77" depart="21.72" from="-611893669" to="234945461" departLane="best" type="veh_passenger" departSpeed="max"/>
    <trip id="veh78" depart="22.00" from="-30742117#6" to="-4451751#5" departLane="best" type="veh_passenger" departSpeed="max"/>
    <trip id="veh79" depart="22.29" from="-1172214211" to="279499035#1" departLane="best" type="veh_passenger"/>
    <trip id="veh80" depart="22.57" from="-30742117#6" to="8064326#4" departLane="best" type="veh_passenger" departSpeed="max"/>
    <trip id="veh81" depart="22.85" from="560072170" to="-1195656824#0" departLane="best" type="veh_passenger"/>
    <trip id="veh82" depart="23.13" from="-283546260" to="-223011116" departLane="best" type="veh_passenger"/>
    <trip id="veh83" depart="23.41" from="8064368#1" to="222298504" departLane="best" type="veh_passenger"/>
    <trip id="veh84" depart="23.70" from="1024800696" to="558293131" departLane="best" type="veh_passenger"/>
    <trip id="veh85" depart="23.98" from="48215227#0" to="-31712121#0" departLane="best" type="veh_passenger" departSpeed="max"/>
    <trip id="veh86" depart="24.26" from="-1221959859" to="1161161687" departLane="best" type="veh_passenger"/>
    <trip id="veh87" depart="24.54" from="-8064380#2" to="1207214536#0" departLane="best" type="veh_passenger"/>
    <trip id="veh88" depart="24.82" from="30728574#0" to="31712119#0" departLane="best" type="veh_passenger" departSpeed="max"/>
    <trip id="veh89" depart="25.11" from="8588062#0" to="-1288065483" departLane="best" type="veh_passenger"/>
    <trip id="veh90" depart="25.39" from="-8064305#0" to="-8588074#1" departLane="best" type="veh_passenger"/>
    <trip id="veh91" depart="25.67" from="572481376" to="-559099455" departLane="best" type="veh_passenger"/>
    <trip id="veh92" depart="25.95" from="-278572368#0" to="1191864100#1" departLane="best" type="veh_passenger"/>
    <trip id="veh93" depart="26.23" from="-8064362#1" to="-642929651#0" departLane="best" type="veh_passenger"/>
    <trip id="veh94" depart="26.52" from="-364569733" to="8064363" departLane="best" type="veh_passenger"/>
    <trip id="veh95" depart="26.80" from="-8588016#3" to="642929653#1" departLane="best" type="veh_passenger" departSpeed="max"/>
    <trip id="veh96" depart="27.08" from="1167300106#1" to="-1154312610#1" departLane="best" type="veh_passenger"/>
    <trip id="veh97" depart="27.36" from="914106261" to="611915574#1" departLane="best" type="veh_passenger"/>
    <trip id="veh98" depart="27.64" from="8585845" to="8064384" departLane="best" type="veh_passenger"/>
    <trip id="veh99" depart="27.93" from="55941271" to="-279499075" departLane="best" type="veh_passenger" departSpeed="max"/>
    <trip id="veh100" depart="28.21" from="1049620159#0" to="-4310646#1" departLane="best" type="veh_passenger" departSpeed="max"/>
    <trip id="veh102" depart="28.77" from="-642929650" to="8588069" departLane="best" type="veh_passenger" departSpeed="max"/>
    <trip id="veh104" depart="29.34" from="837540936" to="873046484" departLane="best" type="veh_passenger"/>
    <trip id="veh105" depart="29.62" from="1183708026" to="419164932#0" departLane="best" type="veh_passenger" departSpeed="max"/>
    <trip id="veh107" depart="30.18" from="8585844" to="228032639" departLane="best" type="veh_passenger"/>
    <trip id="veh108" depart="30.47" from="1153425383#0" to="4688966" departLane="best" type="veh_passenger"/>
    <trip id="veh110" depart="31.03" from="1072681690#1" to="626381750#0" departLane="best" type="veh_passenger"/>
    <trip id="veh111" depart="31.31" from="-222298504" to="8585847" departLane="best" type="veh_passenger" departSpeed="max"/>
    <trip id="veh113" depart="31.88" from="1224791374" to="31712122#1" departLane="best" type="veh_passenger"/>
    <trip id="veh114" depart="32.16" from="-30744031#1" to="-168250281" departLane="best" type="veh_passenger" departSpeed="max"/>
    <trip id="veh116" depart="32.72" from="1224791373" to="278572368#1" departLane="best" type="veh_passenger"/>
    <trip id="veh117" depart="33.00" from="-8064351#3" to="229759105#1" departLane="best" type="veh_passenger" departSpeed="max"/>
    <trip id="veh119" depart="33.57" from="-279535157" to="415840859" departLane="best" type="veh_passenger" departSpeed="max"/>
    <trip id="veh120" depart="33.85" from="-30744815" to="1101514574" departLane="best" type="veh_passenger"/>
    <trip id="veh122" depart="34.41" from="-559405367" to="48215227#2" departLane="best" type="veh_passenger"/>
    <trip id="veh123" depart="34.70" from="-1172592064#1" to="1196089575" departLane="best" type="veh_passenger"/>
    <trip id="veh125" depart="35.26" from="-1172779733" to="-4310644#0" departLane="best" type="veh_passenger"/>
    <trip id="veh126" depart="35.54" from="-38710676#11" to="8064408" departLane="best" type="veh_passenger" departSpeed="max"/>
    <trip id="veh128" depart="36.11" from="-624105305" to="-278572368#0" departLane="best" type="veh_passenger" departSpeed="max"/>
    <trip id="veh129" depart="36.39" from="5434749#2" to="38192165" departLane="best" type="veh_passenger"/>
    <trip id="veh131" depart="36.95" from="176244253" to="-1047231400#0" departLane="best" type="veh_passenger"/>
    <trip id="veh132" depart="37.24" from="48223034" to="-8064318#1" departLane="best" type="veh_passenger"/>
    <trip id="veh134" depart="37.80" from="-140848339#6" to="-164777653" departLane="best" type="veh_passenger" departSpeed="max"/>
    <trip id="veh135" depart="38.08" from="-1269992733#2" to="173170902#0" departLane="best" type="veh_passenger"/>
    <trip id="veh137" depart="38.65" from="279728456" to="-382141798#1" departLane="best" type="veh_passenger"/>
    <trip id="veh138" depart="38.93" from="1311534863#1" to="-611684798#1" departLane="best" type="veh_passenger"/>
    <trip id="veh140" depart="39.49" from="55941271" to="-1285104646" departLane="best" type="veh_passenger" departSpeed="max"/>
    <trip id="veh141" depart="39.77" from="-8064380#2" to="-642929648#2" departLane="best" type="veh_passenger"/>
    <trip id="veh143" depart="40.34" from="1318853643" to="-560072170" departLane="best" type="veh_passenger"/>
    <trip id="veh144" depart="40.62" from="31712120#0" to="168250281" departLane="best" type="veh_passenger" departSpeed="max"/>
    <trip id="veh146" depart="41.19" from="-1183708022" to="707353017" departLane="best" type="veh_passenger"/>
    <trip id="veh147" depart="41.47" from="744687581#0" to="159105149#4" departLane="best" type="veh_passenger"/>
    <trip id="veh149" depart="42.03" from="-168250279" to="-180312436#1" departLane="best" type="veh_passenger" departSpeed="max"/>
    <trip id="veh150" depart="42.31" from="-5434749#0" to="8064312#8" departLane="best" type="veh_passenger"/>
    <trip id="veh152" depart="42.88" from="727512765#0" to="-392155441#2" departLane="best" type="veh_passenger"/>
    <trip id="veh153" depart="43.16" from="-364569732" to="-1306622399" departLane="best" type="veh_passenger"/>
    <trip id="veh155" depart="43.72" from="-8064317#0" to="279224127#0" departLane="best" type="veh_passenger"/>
    <trip id="veh156" depart="44.01" from="-190479304#2" to="8064395#0" departLane="best" type="veh_passenger"/>
    <trip id="veh158" depart="44.57" from="48215234#0" to="706156594#1" departLane="best" type="veh_passenger" departSpeed="max"/>
    <trip id="veh159" depart="44.85" from="-1081805408" to="4400535#6" departLane="best" type="veh_passenger"/>
    <trip id="veh161" depart="45.42" from="4578394#4" to="642929655#3" departLane="best" type="veh_passenger"/>
    <trip id="veh162" depart="45.70" from="48215234#0" to="-611893662#1" departLane="best" type="veh_passenger" departSpeed="max"/>
    <trip id="veh164" depart="46.26" from="-30728428#0" to="611914707" departLane="best" type="veh_passenger"/>
    <trip id="veh165" depart="46.54" from="-8588113#2" to="-8064341#1" departLane="best" type="veh_passenger"/>
    <trip id="veh167" depart="47.11" from="-1081715915" to="-32849303#7" departLane="best" type="veh_passenger"/>
    <trip id="veh168" depart="47.39" from="-611684799" to="642929655#3" departLane="best" type="veh_passenger" departSpeed="max"/>
    <trip id="veh170" depart="47.96" from="141326018" to="1107978773#2" departLane="best" type="veh_passenger" departSpeed="max"/>
    <trip id="veh171" depart="48.24" from="8588032" to="1334320135#1" departLane="best" type="veh_passenger"/>
    <trip id="veh173" depart="48.80" from="8585848#0" to="-30728574#4" departLane="best" type="veh_passenger"/>
    <trip id="veh174" depart="49.08" from="838179468#0" to="-611793158#0" departLane="best" type="veh_passenger"/>
    <trip id="veh176" depart="49.65" from="30728574#0" to="-8064364" departLane="best" type="veh_passenger" departSpeed="max"/>
    <trip id="veh177" depart="49.93" from="1242256394" to="1288065485" departLane="best" type="veh_passenger"/>
    <trip id="veh179" depart="50.49" from="-367717738" to="386770310#0" departLane="best" type="veh_passenger"/>
    <trip id="veh180" depart="50.78" from="-1024800689" to="8064380#0" departLane="best" type="veh_passenger"/>
    <trip id="veh182" depart="51.34" from="31712120#0" to="30744906#1" departLane="best" type="veh_passenger" departSpeed="max"/>
    <trip id="veh183" depart="51.62" from="-624093518" to="-1192345776" departLane="best" type="veh_passenger" departSpeed="max"/>
    <trip id="veh185" depart="52.19" from="-559099455" to="624125352" departLane="best" type="veh_passenger"/>
    <trip id="veh186" depart="52.47" from="281774050" to="-8064320#2" departLane="best" type="veh_passenger"/>
    <trip id="veh188" depart="53.03" from="-8064304#10" to="-8064312#2" departLane="best" type="veh_passenger"/>
    <trip id="veh189" depart="53.31" from="-1312602509" to="1125211279#0" departLane="best" type="veh_passenger"/>
    <trip id="veh191" depart="53.88" from="728859190" to="260962977#1" departLane="best" type="veh_passenger" departSpeed="max"/>
    <trip id="veh192" depart="54.16" from="-49677286#1" to="164777652#1" departLane="best" type="veh_passenger" departSpeed="max"/>
    <trip id="veh194" depart="54.73" from="178433388#1" to="1202585798#0" departLane="best" type="veh_passenger"/>
    <trip id="veh195" depart="55.01" from="-8588011#2" to="-4310644#2" departLane="best" type="veh_passenger"/>
    <trip id="veh197" depart="55.57" from="4400534#2" to="-281390183" departLane="best" type="veh_passenger"/>
    <trip id="veh198" depart="55.85" from="-1195656823#3" to="1290065831#0" departLane="best" type="veh_passenger"/>
    <trip id="veh200" depart="56.42" from="48223039#0" to="48215227#2" departLane="best" type="veh_passenger"/>
    <trip id="veh201" depart="56.70" from="223905251#0" to="-4691186#0" departLane="best" type="veh_passenger" departSpeed="max"/>
    <trip id="veh202" depart="56.98" from="-279496293" to="-1075262493" departLane="best" type="veh_passenger" departSpeed="max"/>
    <trip id="veh203" depart="57.26" from="-318936048" to="1224536243" departLane="best" type="veh_passenger" departSpeed="max"/>
    <trip id="veh204" depart="57.55" from="55941272" to="-1196089575" departLane="best" type="veh_passenger" departSpeed="max"/>
    <trip id="veh205" depart="57.83" from="-8064341#5" to="279496294#1" departLane="best" type="veh_passenger"/>
    <trip id="veh206" depart="58.11" from="-279224132" to="367717740" departLane="best" type="veh_passenger"/>
    <trip id="veh207" depart="58.39" from="1049620164#0" to="-5434751#2" departLane="best" type="veh_passenger" departSpeed="max"/>
    <trip id="veh208" depart="58.67" from="178442710" to="-1043453147#0" departLane="best" type="veh_passenger"/>
    <trip id="veh209" depart="58.96" from="332917470#2" to="498389361#0" departLane="best" type="veh_passenger"/>
    <trip id="veh210" depart="59.24" from="-1269992733#1" to="1153425383#1" departLane="best" type="veh_passenger"/>
    <trip id="veh211" depart="59.52" from="-246938745" to="8585089" departLane="best" type="veh_passenger"/>
    <trip id="veh212" depart="59.80" from="1085565488" to="-1153425383#1" departLane="best" type="veh_passenger"/>
    <trip id="veh213" depart="60.09" from="-360573417" to="624125352" departLane="best" type="veh_passenger"/>
    <trip id="veh214" depart="60.37" from="-8588062#3" to="561205385" departLane="best" type="veh_passenger"/>
    <trip id="veh215" depart="60.65" from="206847921#0" to="8588110" departLane="best" type="veh_passenger" departSpeed="max"/>
    <trip id="veh216" depart="60.93" from="1224791375" to="837540936" departLane="best" type="veh_passenger"/>
    <trip id="veh238" depart="67.14" from="-8064351#3" to="4688966" departLane="best" type="veh_passenger" departSpeed="max"/>
    <trip id="veh239" depart="67.42" from="1158792954#2" to="255817840#0" departLane="best" type="veh_passenger"/>
    <trip id="veh240" depart="67.70" from="-29543967" to="-4451751#2" departLane="best" type="veh_passenger" departSpeed="max"/>
    <trip id="veh241" depart="67.98" from="-838057521#3" to="-1081805411" departLane="best" type="veh_passenger"/>
    <trip id="veh242" depart="68.27" from="-611893662#1" to="319556733" departLane="best" type="veh_passenger"/>
    <trip id="veh243" depart="68.55" from="-8064312#6" to="-279499035#0" departLane="best" type="veh_passenger"/>
    <trip id="veh244" depart="68.83" from="1023922447#1" to="-180312436#4" departLane="best" type="veh_passenger"/>
    <trip id="veh245" depart="69.11" from="1290065829" to="-1081715916" departLane="best" type="veh_passenger"/>
    <trip id="veh246" depart="69.39" from="-727512765#0" to="190360149#0" departLane="best" type="veh_passenger"/>
    <trip id="veh247" depart="69.68" from="-1082367174" to="282245666" departLane="best" type="veh_passenger"/>
    <trip id="veh248" depart="69.96" from="-140848347#1" to="1199229311#1" departLane="best" type="veh_passenger"/>
    <trip id="veh249" depart="70.24" from="-1114912801" to="1072685763" departLane="best" type="veh_passenger" departSpeed="max"/>
    <trip id="veh250" depart="70.52" from="-283351979" to="-840427777#1" departLane="best" type="veh_passenger" departSpeed="max"/>
    <trip id="veh251" depart="70.80" from="367717738" to="1072685763" departLane="best" type="veh_passenger"/>
    <trip id="veh252" depart="71.09" from="332917470#3-AddedOffRampEdge" to="611915572#0" departLane="best" type="veh_passenger"/>
    <trip id="veh253" depart="71.37" from="-365255135" to="-1222309809" departLane="best" type="veh_passenger"/>
    <trip id="veh254" depart="71.65" from="-1073033170" to="140853131#0" departLane="best" type="veh_passenger"/>
    <trip id="veh255" depart="71.93" from="970672174#0" to="1024800691" departLane="best" type="veh_passenger"/>
    <trip id="veh256" depart="72.21" from="174435522" to="48215234#3" departLane="best" type="veh_passenger" departSpeed="max"/>
    <trip id="veh257" depart="72.50" from="810068761#0" to="-365258730" departLane="best" type="veh_passenger"/>
    <trip id="veh272" depart="76.73" from="-1307803573#2" to="8588063#2" departLane="best" type="veh_passenger" departSpeed="max"/>
    <trip id="veh273" depart="77.01" from="428233065" to="1024278850#1" departLane="best" type="veh_passenger"/>
    <trip id="veh274" depart="77.29" from="-82282510#2" to="1063918595" departLane="best" type="veh_passenger" departSpeed="max"/>
    <trip id="veh275" depart="77.57" from="1075262496" to="-8662353" departLane="best" type="veh_passenger"/>
    <trip id="veh276" depart="77.86" from="55941272" to="611915564#1" departLane="best" type="veh_passenger" departSpeed="max"/>
    <trip id="veh277" depart="78.14" from="-1242834888" to="8585847" departLane="best" type="veh_passenger"/>
    <trip id="veh278" depart="78.42" from="1316476977" to="611915570#0" departLane="best" type="veh_passenger"/>
    <trip id="veh279" depart="78.70" from="278572368#1" to="1162758065" departLane="best" type="veh_passenger"/>
    <trip id="veh280" depart="78.98" from="30730053#0" to="8585854" departLane="best" type="veh_passenger"/>
    <trip id="veh281" depart="79.27" from="-40791673" to="611684999" departLane="best" type="veh_passenger"/>
    <trip id="veh282" depart="79.55" from="1137018582" to="1224791375" departLane="best" type="veh_passenger"/>
    <trip id="veh283" depart="79.83" from="-838057521#2" to="4385343#1" departLane="best" type="veh_passenger"/>
    <trip id="veh284" depart="80.11" from="-39129466#4" to="624201595" departLane="best" type="veh_passenger" departSpeed="max"/>
    <trip id="veh285" depart="80.40" from="51348552" to="-1224791404" departLane="best" type="veh_passenger" departSpeed="max"/>
    <trip id="veh286" depart="80.68" from="642929651#0" to="-5434751#2" departLane="best" type="veh_passenger" departSpeed="max"/>
    <trip id="veh287" depart="80.96" from="-872797182" to="255876458" departLane="best" type="veh_passenger"/>
    <trip id="veh288" depart="81.24" from="-642929651#1" to="-1081805409#2" departLane="best" type="veh_passenger"/>
    <trip id="veh302" depart="85.19" from="31712123#0" to="-8588009#1" departLane="best" type="veh_passenger"/>
    <trip id="veh303" depart="85.47" from="255876454" to="-611915569#1" departLane="best" type="veh_passenger"/>
    <trip id="veh304" depart="85.76" from="-365255131" to="-174435522" departLane="best" type="veh_passenger"/>
    <trip id="veh305" depart="86.04" from="-279224128#2" to="-167806515#3" departLane="best" type="veh_passenger" departSpeed="max"/>
    <trip id="veh306" depart="86.32" from="1125211277" to="4843858" departLane="best" type="veh_passenger"/>
    <trip id="veh307" depart="86.60" from="-255876460" to="-4345619#2" departLane="best" type="veh_passenger" departSpeed="max"/>
    <trip id="veh308" depart="86.88" from="1047231401" to="4337563#0" departLane="best" type="veh_passenger" departSpeed="max"/>
    <trip id="veh309" depart="87.17" from="8588019" to="1308786693#1" departLane="best" type="veh_passenger"/>
    <trip id="veh310" depart="87.45" from="-4641818" to="-1300921849" departLane="best" type="veh_passenger" departSpeed="max"/>
    <trip id="veh311" depart="87.73" from="-279224131" to="-48215233#0" departLane="best" type="veh_passenger"/>
    <trip id="veh312" depart="88.01" from="-255876455" to="-1049620160#0" departLane="best" type="veh_passenger" departSpeed="max"/>
    <trip id="veh313" depart="88.29" from="1125211274#0" to="-626255187" departLane="best" type="veh_passenger"/>
    <trip id="veh314" depart="88.58" from="8588006" to="173170902#0" departLane="best" type="veh_passenger"/>
    <trip id="veh315" depart="88.86" from="25074639" to="-180312436#1" departLane="best" type="veh_passenger"/>
    <trip id="veh316" depart="89.14" from="611909739" to="1242099776" departLane="best" type="veh_passenger"/>
    <trip id="veh317" depart="89.42" from="618012539#0" to="223259259" departLane="best" type="veh_passenger"/>
    <trip id="veh318" depart="89.70" from="1024800690" to="1172592065" departLane="best" type="veh_passenger"/>
    <trip id="veh319" depart="89.99" from="-255876460" to="-1154312610#1" departLane="best" type="veh_passenger" departSpeed="max"/>
    <trip id="veh320" depart="90.27" from="8064395#2" to="1224551820" departLane="best" type="veh_passenger"/>
    <trip id="veh321" depart="90.55" from="48538290#0" to="1107978775" departLane="best" type="veh_passenger" departSpeed="max"/>
    <trip id="veh322" depart="90.83" from="-1183708021#2" to="279496294#1" departLane="best" type="veh_passenger" departSpeed="max"/>
    <trip id="veh323" depart="91.11" from="-1125211274#1" to="-23990086#0" departLane="best" type="veh_passenger"/>
    <trip id="veh324" depart="91.40" from="1191864100#1" to="-8064327#2" departLane="best" type="veh_passenger"/>
    <trip id="veh339" depart="95.63" from="255876457" to="1192345774" departLane="best" type="veh_passenger"/>
    <trip id="veh340" depart="95.91" from="23990086#0" to="8064363" departLane="best" type="veh_passenger" departSpeed="max"/>